<?xml version="1.0" encoding="iso-8859-1"?>
<configuration xmlns:xsi="http://www.w3.org/2001/XMLSchema-instance"
 xsi:noNamespaceSchemaLocation="http://sumo.sf.net/xsd/sumoConfiguration.xsd">
    
<input>
  <net-file value="GrazWestA2A9.net.xml"/>
  <route-files value="GrazWestA2A9.rou.xml"/>  
</input>
    
<time>
  <begin value="0"/> 
  <end value="300"/>
</time>

<time-to-teleport value="-1"/>
 
<report>
  <verbose value="true"/>
  <no-step-log value="true"/>
</report>

</configuration>
