<?xml version="1.0" encoding="UTF-8"?>

<!-- generated on 19.02.2016 13:49:56 by Netedit Version 0.25.0
<?xml version="1.0" encoding="UTF-8"?>

<configuration xmlns:xsi="http://www.w3.org/2001/XMLSchema-instance" xsi:noNamespaceSchemaLocation="http://sumo.dlr.de/xsd/netedit.exeConfiguration.xsd">

    <input>
        <sumo-net-file value="C:\Users\michaelstolz\Documents\MATLAB_Project_SUMOInterface\data\GrazWestA2A9.net.xml"/>
    </input>

    <output>
        <output-file value="C:\Users\michaelstolz\Documents\MATLAB_Project_SUMOInterface\data\GrazWestA2A9.net.xml"/>
    </output>

    <processing>
        <no-turnarounds value="true"/>
        <offset.disable-normalization value="true"/>
        <lefthand value="false"/>
        <junctions.corner-detail value="0"/>
    </processing>

</configuration>
-->

<net version="0.25" xmlns:xsi="http://www.w3.org/2001/XMLSchema-instance" xsi:noNamespaceSchemaLocation="http://sumo.dlr.de/xsd/net_file.xsd">

    <location netOffset="-530045.95,-5202953.87" convBoundary="0.00,0.00,2918.20,3258.46" origBoundary="15.395079,46.979329,15.433652,47.008708" projParameter="+proj=utm +zone=33 +ellps=WGS84 +datum=WGS84 +units=m +no_defs"/>

    <edge id=":1132296072_0" function="internal">
        <lane id=":1132296072_0_0" index="0" speed="27.78" length="3.42" shape="914.01,1913.32 913.09,1910.00"/>
        <lane id=":1132296072_0_1" index="1" speed="27.78" length="3.42" shape="916.36,1911.00 915.48,1907.72"/>
    </edge>
    <edge id=":1479477417_0" function="internal">
        <lane id=":1479477417_0_0" index="0" speed="27.78" length="0.71" shape="613.21,1511.46 613.74,1511.93"/>
    </edge>
    <edge id=":1981135228_0" function="internal">
        <lane id=":1981135228_0_0" index="0" speed="27.78" length="0.10" shape="1408.96,2363.40 1408.96,2363.40"/>
    </edge>
    <edge id=":1981135229_0" function="internal">
        <lane id=":1981135229_0_0" index="0" speed="27.78" length="0.10" shape="1405.67,2367.45 1405.67,2367.45"/>
    </edge>
    <edge id=":1981135235_0" function="internal">
        <lane id=":1981135235_0_0" index="0" speed="22.22" length="3.40" shape="1599.23,2466.99 1595.84,2466.93"/>
        <lane id=":1981135235_0_1" index="1" speed="22.22" length="3.40" shape="1599.23,2466.99 1597.47,2464.06"/>
    </edge>
    <edge id=":1981135237_0" function="internal">
        <lane id=":1981135237_0_0" index="0" speed="27.78" length="3.26" shape="1014.91,2616.51 1012.53,2618.73"/>
    </edge>
    <edge id=":1993427537_0" function="internal">
        <lane id=":1993427537_0_0" index="0" speed="44.44" length="3.30" shape="1449.59,1117.75 1452.42,1115.89"/>
        <lane id=":1993427537_0_1" index="1" speed="44.44" length="3.30" shape="1452.56,1119.18 1455.30,1117.50"/>
    </edge>
    <edge id=":1993427539_0" function="internal">
        <lane id=":1993427539_0_0" index="0" speed="27.78" length="3.42" shape="1317.66,1450.78 1318.09,1454.20"/>
        <lane id=":1993427539_0_1" index="1" speed="27.78" length="3.42" shape="1317.66,1450.78 1315.03,1452.98"/>
        <lane id=":1993427539_0_2" index="2" speed="27.78" length="3.42" shape="1314.57,1449.60 1311.96,1451.76"/>
    </edge>
    <edge id=":1993427545_0" function="internal">
        <lane id=":1993427545_0_0" index="0" speed="27.78" length="3.41" shape="1142.65,1935.34 1143.39,1938.71"/>
        <lane id=":1993427545_0_1" index="1" speed="27.78" length="3.41" shape="1142.65,1935.34 1140.23,1937.75"/>
        <lane id=":1993427545_0_2" index="2" speed="27.78" length="3.41" shape="1139.47,1934.46 1137.07,1936.80"/>
    </edge>
    <edge id=":1993427547_0" function="internal">
        <lane id=":1993427547_0_0" index="0" speed="27.78" length="0.10" shape="1081.19,2079.41 1081.20,2079.40"/>
        <lane id=":1993427547_0_1" index="1" speed="27.78" length="0.10" shape="1084.39,2080.23 1084.39,2080.23"/>
        <lane id=":1993427547_0_2" index="2" speed="27.78" length="0.10" shape="1087.60,2081.00 1087.58,2081.06"/>
    </edge>
    <edge id=":1993427548_0" function="internal">
        <lane id=":1993427548_0_0" index="0" speed="25.00" length="9.96" shape="1097.73,2098.98 1096.61,2108.88"/>
    </edge>
    <edge id=":1993427548_1" function="internal">
        <lane id=":1993427548_1_0" index="0" speed="27.78" length="10.26" shape="1094.55,2098.10 1093.96,2101.08 1093.88,2103.18 1093.80,2105.28 1093.18,2108.25"/>
        <lane id=":1993427548_1_1" index="1" speed="27.78" length="10.26" shape="1091.37,2097.22 1090.78,2100.19 1090.71,2102.28 1090.63,2104.38 1090.01,2107.34"/>
    </edge>
    <edge id=":1993427549_0" function="internal">
        <lane id=":1993427549_0_0" index="0" speed="27.78" length="3.35" shape="1047.81,2217.96 1046.85,2214.66"/>
        <lane id=":1993427549_0_1" index="1" speed="27.78" length="3.35" shape="1047.81,2217.96 1050.06,2215.45"/>
        <lane id=":1993427549_0_2" index="2" speed="27.78" length="3.35" shape="1051.04,2218.61 1053.26,2216.23"/>
    </edge>
    <edge id=":1993435940_0" function="internal">
        <lane id=":1993435940_0_0" index="0" speed="44.44" length="3.39" shape="1674.07,703.69 1674.11,700.24"/>
        <lane id=":1993435940_0_1" index="1" speed="44.44" length="3.39" shape="1674.07,703.69 1676.96,701.90"/>
        <lane id=":1993435940_0_2" index="2" speed="44.44" length="3.39" shape="1676.97,705.26 1679.81,703.56"/>
    </edge>
    <edge id=":20824126_0" function="internal">
        <lane id=":20824126_0_0" index="0" speed="31.95" length="62.36" shape="566.75,1461.80 576.17,1473.97 588.87,1488.91 600.79,1502.00 607.87,1508.58"/>
    </edge>
    <edge id=":20824126_1" function="internal">
        <lane id=":20824126_1_0" index="0" speed="31.95" length="82.15" shape="566.75,1461.80 576.81,1475.62 591.24,1494.94 605.67,1514.26 615.74,1528.07"/>
        <lane id=":20824126_1_1" index="1" speed="31.95" length="82.15" shape="564.24,1463.98 574.29,1477.77 588.66,1497.01 603.04,1516.26 613.09,1530.03"/>
        <lane id=":20824126_1_2" index="2" speed="31.95" length="82.15" shape="561.74,1466.16 571.76,1479.91 586.08,1499.08 600.41,1518.25 610.43,1532.00"/>
    </edge>
    <edge id=":20825068_0" function="internal">
        <lane id=":20825068_0_0" index="0" speed="25.00" length="61.99" shape="1122.71,2085.46 1130.16,2092.69 1143.81,2105.52 1158.26,2118.87 1168.10,2127.67"/>
    </edge>
    <edge id=":20825068_1" function="internal">
        <lane id=":20825068_1_0" index="0" speed="27.78" length="72.04" shape="1113.43,2081.12 1124.10,2090.23 1140.74,2104.42 1157.40,2118.60 1168.10,2127.67"/>
        <lane id=":20825068_1_1" index="1" speed="27.78" length="72.04" shape="1111.21,2083.57 1121.94,2092.73 1138.70,2107.02 1155.48,2121.30 1166.24,2130.42"/>
    </edge>
    <edge id=":20949417_0" function="internal">
        <lane id=":20949417_0_0" index="0" speed="25.00" length="3.35" shape="1654.77,2498.65 1651.68,2497.35"/>
    </edge>
    <edge id=":20949417_1" function="internal">
        <lane id=":20949417_1_0" index="0" speed="27.78" length="2.77" shape="1656.39,2495.77 1653.91,2494.12"/>
        <lane id=":20949417_1_1" index="1" speed="27.78" length="2.77" shape="1658.01,2492.90 1655.88,2491.47"/>
    </edge>
    <edge id=":20949420_0" function="internal">
        <lane id=":20949420_0_0" index="0" speed="27.78" length="5.69" shape="777.96,1769.37 774.54,1764.84"/>
    </edge>
    <edge id=":20949420_1" function="internal">
        <lane id=":20949420_1_0" index="0" speed="27.78" length="4.94" shape="780.38,1766.59 777.09,1762.75"/>
        <lane id=":20949420_1_1" index="1" speed="27.78" length="4.94" shape="782.78,1764.33 779.65,1760.66"/>
    </edge>
    <edge id=":20949421_0" function="internal">
        <lane id=":20949421_0_0" index="0" speed="31.95" length="0.10" shape="563.50,1493.76 563.48,1493.74"/>
        <lane id=":20949421_0_1" index="1" speed="31.95" length="0.10" shape="566.21,1491.88 566.21,1491.88"/>
        <lane id=":20949421_0_2" index="2" speed="31.95" length="0.10" shape="568.92,1489.99 568.94,1490.02"/>
    </edge>
    <edge id=":21486692_0" function="internal">
        <lane id=":21486692_0_0" index="0" speed="27.78" length="8.43" shape="955.36,2691.10 956.22,2682.71"/>
    </edge>
    <edge id=":21486692_1" function="internal">
        <lane id=":21486692_1_0" index="0" speed="27.78" length="4.95" shape="958.63,2691.50 959.55,2686.53"/>
        <lane id=":21486692_1_1" index="1" speed="27.78" length="4.95" shape="961.91,2691.90 962.79,2687.13"/>
    </edge>
    <edge id=":21486696_0" function="internal">
        <lane id=":21486696_0_0" index="0" speed="25.00" length="8.57" shape="1104.05,1991.34 1106.04,1983.01"/>
    </edge>
    <edge id=":21486696_1" function="internal">
        <lane id=":21486696_1_0" index="0" speed="27.78" length="4.95" shape="1107.24,1992.17 1108.85,1987.38"/>
        <lane id=":21486696_1_1" index="1" speed="27.78" length="4.95" shape="1110.44,1993.00 1111.98,1988.42"/>
    </edge>
    <edge id=":2163753269_0" function="internal">
        <lane id=":2163753269_0_0" index="0" speed="22.22" length="0.82" shape="1111.27,2107.43 1110.85,2106.72"/>
    </edge>
    <edge id=":2163770002_0" function="internal">
        <lane id=":2163770002_0_0" index="0" speed="27.78" length="0.10" shape="1558.24,2409.01 1558.23,2409.01"/>
    </edge>
    <edge id=":2163770004_0" function="internal">
        <lane id=":2163770004_0_0" index="0" speed="27.78" length="0.33" shape="1650.64,2491.70 1650.51,2491.62"/>
        <lane id=":2163770004_0_1" index="1" speed="27.78" length="0.33" shape="1652.60,2489.05 1652.19,2488.78"/>
    </edge>
    <edge id=":2163770005_0" function="internal">
        <lane id=":2163770005_0_0" index="0" speed="22.22" length="0.41" shape="1648.71,2496.50 1648.33,2496.33"/>
    </edge>
    <edge id=":256449064_0" function="internal">
        <lane id=":256449064_0_0" index="0" speed="27.78" length="50.77" shape="645.27,1570.37 652.69,1580.85 661.12,1592.52 669.07,1603.36 675.10,1611.38"/>
        <lane id=":256449064_0_1" index="1" speed="27.78" length="50.77" shape="642.52,1572.20 649.96,1582.69 658.40,1594.39 666.37,1605.26 672.41,1613.29"/>
    </edge>
    <edge id=":256449065_0" function="internal">
        <lane id=":256449065_0_0" index="0" speed="25.00" length="5.05" shape="741.17,1649.00 746.22,1648.79"/>
    </edge>
    <edge id=":256449065_1" function="internal">
        <lane id=":256449065_1_0" index="0" speed="25.00" length="5.00" shape="741.17,1649.00 744.95,1652.27"/>
    </edge>
    <edge id=":26756278_0" function="internal">
        <lane id=":26756278_0_0" index="0" speed="25.00" length="3.12" shape="1419.92,2373.47 1417.09,2372.18"/>
    </edge>
    <edge id=":26756278_1" function="internal">
        <lane id=":26756278_1_0" index="0" speed="25.00" length="4.60" shape="1421.41,2370.53 1417.34,2368.36"/>
    </edge>
    <edge id=":26756284_0" function="internal">
        <lane id=":26756284_0_0" index="0" speed="27.78" length="4.89" shape="1049.34,2516.10 1046.50,2520.07"/>
    </edge>
    <edge id=":26756284_1" function="internal">
        <lane id=":26756284_1_0" index="0" speed="25.00" length="5.15" shape="1046.09,2514.69 1043.36,2519.05"/>
    </edge>
    <edge id=":26756291_0" function="internal">
        <lane id=":26756291_0_0" index="0" speed="27.78" length="7.42" shape="955.95,2862.49 954.35,2869.73"/>
    </edge>
    <edge id=":26756291_1" function="internal">
        <lane id=":26756291_1_0" index="0" speed="27.78" length="7.56" shape="952.52,2861.95 951.06,2869.43"/>
        <lane id=":26756291_1_1" index="1" speed="27.78" length="7.56" shape="949.22,2861.76 947.77,2869.12"/>
    </edge>
    <edge id=":282018687_0" function="internal">
        <lane id=":282018687_0_0" index="0" speed="25.00" length="4.43" shape="1109.87,2103.22 1108.17,2099.13"/>
    </edge>
    <edge id=":282018687_1" function="internal">
        <lane id=":282018687_1_0" index="0" speed="27.78" length="5.19" shape="1113.18,2101.11 1110.39,2096.68"/>
        <lane id=":282018687_1_1" index="1" speed="27.78" length="5.19" shape="1115.33,2098.60 1112.60,2094.24"/>
    </edge>
    <edge id=":29684448_0" function="internal">
        <lane id=":29684448_0_0" index="0" speed="25.00" length="10.24" shape="1638.62,808.60 1636.77,810.96 1635.45,812.58 1634.23,814.29 1632.71,816.94"/>
    </edge>
    <edge id=":29684448_1" function="internal">
        <lane id=":29684448_1_0" index="0" speed="27.78" length="10.43" shape="1635.70,806.78 1634.12,809.44 1632.78,811.10 1631.42,812.75 1629.80,815.38"/>
        <lane id=":29684448_1_1" index="1" speed="27.78" length="10.43" shape="1632.77,805.27 1631.19,807.91 1629.85,809.57 1628.50,811.21 1626.89,813.83"/>
    </edge>
    <edge id=":29684449_0" function="internal">
        <lane id=":29684449_0_0" index="0" speed="27.78" length="3.43" shape="1527.41,1014.26 1524.52,1016.14"/>
        <lane id=":29684449_0_1" index="1" speed="27.78" length="3.43" shape="1524.49,1012.71 1521.62,1014.55"/>
    </edge>
    <edge id=":29684451_0" function="internal">
        <lane id=":29684451_0_0" index="0" speed="27.78" length="0.10" shape="1408.72,1242.53 1408.74,1242.47"/>
        <lane id=":29684451_0_1" index="1" speed="27.78" length="0.10" shape="1405.76,1241.05 1405.75,1241.08"/>
    </edge>
    <edge id=":29684453_0" function="internal">
        <lane id=":29684453_0_0" index="0" speed="27.78" length="6.64" shape="1252.52,1619.01 1251.06,1625.49"/>
    </edge>
    <edge id=":29684453_1" function="internal">
        <lane id=":29684453_1_0" index="0" speed="27.78" length="6.84" shape="1249.45,1617.78 1247.66,1624.46"/>
        <lane id=":29684453_1_1" index="1" speed="27.78" length="6.84" shape="1246.38,1616.56 1244.65,1623.11"/>
    </edge>
    <edge id=":29684472_0" function="internal">
        <lane id=":29684472_0_0" index="0" speed="27.78" length="105.86" shape="1621.41,2452.67 1635.70,2460.99 1664.10,2477.07 1694.21,2493.97 1713.59,2504.73"/>
    </edge>
    <edge id=":29684472_1" function="internal">
        <lane id=":29684472_1_0" index="0" speed="27.78" length="106.61" shape="1619.87,2454.39 1636.32,2463.34 1665.04,2478.73 1694.61,2494.53 1713.59,2504.73"/>
        <lane id=":29684472_1_1" index="1" speed="27.78" length="106.61" shape="1619.87,2454.39 1636.13,2463.83 1664.43,2480.28 1693.58,2497.15 1712.37,2507.83"/>
    </edge>
    <edge id=":2974113760_0" function="internal">
        <lane id=":2974113760_0_0" index="0" speed="22.22" length="0.41" shape="746.42,1648.85 746.77,1649.07"/>
    </edge>
    <edge id=":315909860_0" function="internal">
        <lane id=":315909860_0_0" index="0" speed="36.11" length="0.10" shape="2355.04,2857.87 2354.99,2857.84"/>
        <lane id=":315909860_0_1" index="1" speed="36.11" length="0.10" shape="2356.41,2854.87 2356.42,2854.87"/>
        <lane id=":315909860_0_2" index="2" speed="36.11" length="0.10" shape="2357.79,2851.87 2357.85,2851.90"/>
    </edge>
    <edge id=":31939580_0" function="internal">
        <lane id=":31939580_0_0" index="0" speed="33.33" length="3.19" shape="1314.50,1405.60 1316.01,1402.79"/>
    </edge>
    <edge id=":31939580_1" function="internal">
        <lane id=":31939580_1_0" index="0" speed="36.11" length="1.85" shape="1318.32,1406.00 1319.01,1404.17"/>
        <lane id=":31939580_1_1" index="1" speed="36.11" length="1.85" shape="1321.40,1407.18 1322.01,1405.55"/>
    </edge>
    <edge id=":31939596_0" function="internal">
        <lane id=":31939596_0_0" index="0" speed="22.22" length="3.32" shape="1203.20,1599.25 1206.14,1597.70"/>
    </edge>
    <edge id=":31939658_0" function="internal">
        <lane id=":31939658_0_0" index="0" speed="25.00" length="13.27" shape="1134.73,1677.20 1137.44,1675.40 1139.81,1673.91 1142.28,1672.09 1145.31,1669.25"/>
    </edge>
    <edge id=":31939658_1" function="internal">
        <lane id=":31939658_1_0" index="0" speed="27.78" length="13.57" shape="1136.95,1679.82 1139.45,1677.72 1141.87,1676.18 1144.50,1674.39 1147.67,1671.55"/>
    </edge>
    <edge id=":31940325_0" function="internal">
        <lane id=":31940325_0_0" index="0" speed="44.44" length="0.10" shape="1579.36,875.64 1579.37,875.64"/>
        <lane id=":31940325_0_1" index="1" speed="44.44" length="0.10" shape="1582.26,877.22 1582.25,877.24"/>
    </edge>
    <edge id=":31940347_0" function="internal">
        <lane id=":31940347_0_0" index="0" speed="33.33" length="4.74" shape="1753.54,563.77 1754.76,559.19"/>
    </edge>
    <edge id=":31940347_1" function="internal">
        <lane id=":31940347_1_0" index="0" speed="44.44" length="5.06" shape="1756.40,565.43 1758.19,560.61"/>
        <lane id=":31940347_1_1" index="1" speed="44.44" length="5.06" shape="1759.25,567.09 1760.95,562.42"/>
    </edge>
    <edge id=":349047092_0" function="internal">
        <lane id=":349047092_0_0" index="0" speed="25.00" length="0.10" shape="1166.68,1647.27 1166.62,1647.33"/>
        <lane id=":349047092_0_1" index="1" speed="25.00" length="0.10" shape="1169.04,1649.57 1169.10,1649.51"/>
    </edge>
    <edge id=":349047100_0" function="internal">
        <lane id=":349047100_0_0" index="0" speed="27.78" length="0.13" shape="1243.06,1634.75 1243.00,1634.90"/>
        <lane id=":349047100_0_1" index="1" speed="27.78" length="0.13" shape="1240.00,1633.52 1239.99,1633.55"/>
    </edge>
    <edge id=":349047102_0" function="internal">
        <lane id=":349047102_0_0" index="0" speed="27.78" length="0.10" shape="1248.87,1638.32 1248.87,1638.32"/>
    </edge>
    <edge id=":gneJ0_0" function="internal">
        <lane id=":gneJ0_0_0" index="0" speed="36.11" length="0.16" shape="40.11,390.18 40.21,390.44"/>
        <lane id=":gneJ0_0_1" index="1" speed="36.11" length="0.16" shape="37.07,391.49 37.07,391.49"/>
        <lane id=":gneJ0_0_2" index="2" speed="36.11" length="0.16" shape="33.98,392.65 33.99,392.69"/>
    </edge>
    <edge id=":lightJunction_0" function="internal">
        <lane id=":lightJunction_0_0" index="0" speed="36.11" length="10.67" shape="2351.64,2832.90 2354.49,2834.30 2356.44,2835.24 2358.41,2836.16 2361.30,2837.48"/>
        <lane id=":lightJunction_0_1" index="1" speed="36.11" length="10.67" shape="2350.30,2835.92 2353.14,2837.32 2355.10,2838.26 2357.06,2839.17 2359.94,2840.49"/>
        <lane id=":lightJunction_0_2" index="2" speed="36.11" length="10.67" shape="2348.97,2838.94 2351.80,2840.33 2353.75,2841.27 2355.71,2842.18 2358.59,2843.49"/>
    </edge>

    <edge id="134582831" from="1479477417" to="256449065" priority="12" type="highway.motorway_link" spreadType="center" shape="613.53,1511.63 642.46,1551.52 703.39,1614.33 738.54,1646.59">
        <lane id="134582831_0" index="0" speed="27.78" length="187.70" shape="613.74,1511.93 642.46,1551.52 703.39,1614.33 741.17,1649.00"/>
    </edge>
    <edge id="187411636" from="26756291" to="26756296" priority="13" type="highway.motorway" spreadType="center" shape="949.33,2888.10 941.91,2968.15 940.12,2991.66 933.13,3115.03 928.09,3258.46">
        <lane id="187411636_0" index="0" speed="27.78" length="389.81" shape="954.35,2869.73 945.20,2968.43 943.41,2991.88 936.43,3115.18 931.39,3258.58"/>
        <lane id="187411636_1" index="1" speed="27.78" length="389.81" shape="951.06,2869.43 941.91,2968.15 940.12,2991.66 933.13,3115.03 928.09,3258.46"/>
        <lane id="187411636_2" index="2" speed="27.78" length="389.81" shape="947.77,2869.12 938.62,2967.87 936.83,2991.44 929.83,3114.88 924.79,3258.34"/>
    </edge>
    <edge id="187411637" from="26756284" to="1981135237" priority="12" type="highway.motorway_link" spreadType="center">
        <lane id="187411637_0" index="0" speed="27.78" length="101.47" shape="1046.50,2520.07 1014.91,2616.51"/>
        <lane id="187411637_1" index="1" speed="27.78" length="101.47" shape="1043.36,2519.05 1011.78,2615.48"/>
    </edge>
    <edge id="187411639" from="1981135235" to="26756278" priority="12" type="highway.motorway_link" spreadType="center" shape="1597.95,2466.23 1518.86,2421.37 1439.34,2381.39">
        <lane id="187411639_0" index="0" speed="22.22" length="199.35" shape="1595.84,2466.93 1518.08,2422.83 1419.92,2373.47"/>
        <lane id="187411639_1" index="1" speed="22.22" length="199.35" shape="1597.47,2464.06 1519.64,2419.91 1421.41,2370.53"/>
    </edge>
    <edge id="187411641" from="1981135237" to="26756291" priority="12" type="highway.motorway_link" spreadType="center" shape="1012.90,2617.35 996.26,2679.21 961.30,2841.79 949.33,2888.10">
        <lane id="187411641_0" index="0" speed="27.78" length="250.31" shape="1012.53,2618.73 996.26,2679.21 961.30,2841.79 955.95,2862.49"/>
    </edge>
    <edge id="187415547" from="31939596" to="31939580" priority="12" type="highway.motorway_link" spreadType="center" shape="1205.38,1598.95 1239.87,1542.24 1298.75,1430.98 1329.46,1381.50">
        <lane id="187415547_0" index="0" speed="22.22" length="220.67" shape="1206.14,1597.70 1239.87,1542.24 1298.75,1430.98 1314.50,1405.60"/>
    </edge>
    <edge id="187415549" from="31939658" to="349047092" priority="12" type="highway.motorway_link" spreadType="center">
        <lane id="187415549_0" index="0" speed="27.78" length="30.66" shape="1145.31,1669.25 1166.68,1647.27"/>
        <lane id="187415549_1" index="1" speed="27.78" length="30.66" shape="1147.67,1671.55 1169.04,1649.57"/>
    </edge>
    <edge id="187417427" from="21486692" to="1993427549" priority="13" type="highway.motorway" spreadType="center" shape="955.37,2718.32 962.65,2678.81 987.03,2526.80 1004.36,2432.36 1016.10,2375.76 1034.08,2290.48 1041.50,2257.84 1049.71,2216.86">
        <lane id="187417427_0" index="0" speed="27.78" length="476.90" shape="959.55,2686.53 961.02,2678.53 985.40,2526.52 1002.74,2432.04 1014.48,2375.42 1032.47,2290.13 1039.89,2257.50 1047.81,2217.96"/>
        <lane id="187417427_1" index="1" speed="27.78" length="476.90" shape="962.79,2687.13 964.28,2679.09 988.66,2527.08 1005.98,2432.68 1017.72,2376.10 1035.69,2290.83 1043.11,2258.18 1051.04,2218.61"/>
    </edge>
    <edge id="187631622" from="256449065" to="26756284" priority="12" type="highway.motorway_link" spreadType="center" shape="738.54,1646.59 809.39,1709.33 826.98,1727.71 843.16,1745.91 857.22,1765.65 873.50,1793.31 891.81,1839.85 956.43,1998.84 1073.01,2325.28 1075.36,2400.90 1063.13,2457.21 1041.96,2528.62">
        <lane id="187631622_0" index="0" speed="22.22" length="953.69" shape="744.95,1652.27 809.39,1709.33 826.98,1727.71 843.16,1745.91 857.22,1765.65 873.50,1793.31 891.81,1839.85 956.43,1998.84 1073.01,2325.28 1075.36,2400.90 1063.13,2457.21 1046.09,2514.69"/>
    </edge>
    <edge id="188716194" from="1993379567" to="21486692" priority="13" type="highway.motorway" spreadType="center" shape="915.72,3199.83 919.19,3149.56 921.96,3080.79 928.69,2978.42 937.73,2863.31 955.37,2718.32">
        <lane id="188716194_0" index="0" speed="27.78" length="510.35" shape="912.43,3199.60 915.89,3149.38 918.66,3080.62 925.40,2978.18 934.45,2862.98 955.36,2691.10"/>
        <lane id="188716194_1" index="1" speed="27.78" length="510.35" shape="915.72,3199.83 919.19,3149.56 921.96,3080.79 928.69,2978.42 937.73,2863.31 958.63,2691.50"/>
        <lane id="188716194_2" index="2" speed="27.78" length="510.35" shape="919.01,3200.06 922.49,3149.74 925.26,3080.96 931.98,2978.66 941.01,2863.64 961.91,2691.90"/>
    </edge>
    <edge id="188721361" from="1993427545" to="1993427548" priority="13" type="highway.motorway" spreadType="center" shape="1140.66,1936.33 1119.19,2007.32 1107.77,2050.30 1098.73,2082.98">
        <lane id="188721361_0" index="0" speed="27.78" length="166.74" shape="1143.39,1938.71 1122.36,2008.22 1110.96,2051.16 1097.73,2098.98"/>
        <lane id="188721361_1" index="1" speed="27.78" length="166.74" shape="1140.23,1937.75 1119.19,2007.32 1107.77,2050.30 1094.55,2098.10"/>
        <lane id="188721361_2" index="2" speed="27.78" length="166.74" shape="1137.07,1936.80 1116.02,2006.42 1104.58,2049.44 1091.37,2097.22"/>
    </edge>
    <edge id="188721364" from="1993427548" to="26756291" priority="13" type="highway.motorway" spreadType="center" shape="1098.73,2082.98 1087.56,2121.84 1070.47,2182.63 1040.81,2309.50 1024.47,2389.03 996.98,2531.72 972.55,2683.90 952.00,2842.56 949.33,2888.10">
        <lane id="188721364_0" index="0" speed="27.78" length="768.00" shape="1093.18,2108.25 1089.15,2122.29 1072.07,2183.04 1042.42,2309.85 1026.09,2389.35 998.61,2532.01 974.18,2684.14 953.64,2842.71 952.52,2861.95"/>
        <lane id="188721364_1" index="1" speed="27.78" length="768.00" shape="1090.01,2107.34 1085.97,2121.39 1068.87,2182.22 1039.20,2309.15 1022.85,2388.71 995.35,2531.43 970.92,2683.66 950.36,2842.41 949.22,2861.76"/>
    </edge>
    <edge id="188721368" from="1993427539" to="29684453" priority="13" type="highway.motorway" spreadType="center" shape="1315.58,1451.59 1268.51,1569.91 1254.56,1604.95">
        <lane id="188721368_0" index="0" speed="27.78" length="177.37" shape="1318.09,1454.20 1271.58,1571.13 1252.52,1619.01"/>
        <lane id="188721368_1" index="1" speed="27.78" length="177.37" shape="1315.03,1452.98 1268.51,1569.91 1249.45,1617.78"/>
        <lane id="188721368_2" index="2" speed="27.78" length="177.37" shape="1311.96,1451.76 1265.44,1568.69 1246.38,1616.56"/>
    </edge>
    <edge id="188721377" from="29684448" to="29684449" priority="13" type="highway.motorway" spreadType="center">
        <lane id="188721377_0" index="0" speed="27.78" length="223.67" shape="1632.71,816.94 1527.41,1014.26"/>
        <lane id="188721377_1" index="1" speed="27.78" length="223.67" shape="1629.80,815.38 1524.49,1012.71"/>
        <lane id="188721377_2" index="2" speed="27.78" length="223.67" shape="1626.89,813.83 1521.58,1011.16"/>
    </edge>
    <edge id="188721381" from="1993427547" to="21486696" priority="13" type="highway.motorway" spreadType="center">
        <lane id="188721381_0" index="0" speed="27.78" length="90.98" shape="1081.20,2079.40 1104.05,1991.34"/>
        <lane id="188721381_1" index="1" speed="27.78" length="90.98" shape="1084.39,2080.23 1107.24,1992.17"/>
        <lane id="188721381_2" index="2" speed="27.78" length="90.98" shape="1087.58,2081.06 1110.44,1993.00"/>
    </edge>
    <edge id="188721385" from="1993427549" to="1993427547" priority="13" type="highway.motorway" spreadType="center" shape="1049.71,2216.86 1062.36,2165.24 1077.47,2108.95 1084.39,2080.23">
        <lane id="188721385_0" index="0" speed="27.78" length="139.53" shape="1046.85,2214.66 1059.16,2164.42 1074.27,2108.14 1081.19,2079.41"/>
        <lane id="188721385_1" index="1" speed="27.78" length="139.53" shape="1050.06,2215.45 1062.36,2165.24 1077.47,2108.95 1084.39,2080.23"/>
        <lane id="188721385_2" index="2" speed="27.78" length="139.53" shape="1053.26,2216.23 1065.56,2166.06 1080.67,2109.76 1087.60,2081.00"/>
    </edge>
    <edge id="188721392" from="29684449" to="29684451" priority="13" type="highway.motorway" spreadType="center" shape="1523.79,1014.03 1490.14,1075.44 1407.24,1241.79">
        <lane id="188721392_0" index="0" speed="27.78" length="254.39" shape="1524.52,1016.14 1491.60,1076.20 1408.72,1242.53"/>
        <lane id="188721392_1" index="1" speed="27.78" length="254.39" shape="1521.62,1014.55 1488.68,1074.68 1405.76,1241.05"/>
    </edge>
    <edge id="188721395" from="29684451" to="1993427539" priority="13" type="highway.motorway" spreadType="center" shape="1407.24,1241.79 1336.39,1397.17 1315.58,1451.59">
        <lane id="188721395_0" index="0" speed="27.78" length="227.55" shape="1408.74,1242.47 1337.91,1397.81 1317.66,1450.78"/>
        <lane id="188721395_1" index="1" speed="27.78" length="227.55" shape="1405.75,1241.08 1334.87,1396.53 1314.57,1449.60"/>
    </edge>
    <edge id="188721398" from="1993427537" to="31940325" priority="13" type="highway.motorway" spreadType="center" shape="1453.17,1117.92 1476.47,1076.34 1525.49,979.69 1580.81,876.44">
        <lane id="188721398_0" index="0" speed="44.44" length="271.78" shape="1452.42,1115.89 1475.01,1075.56 1524.03,978.93 1579.36,875.64"/>
        <lane id="188721398_1" index="1" speed="44.44" length="271.78" shape="1455.30,1117.50 1477.93,1077.12 1526.95,980.45 1582.26,877.22"/>
    </edge>
    <edge id="188723005" from="1993435940" to="31940347" priority="13" type="highway.motorway" spreadType="center">
        <lane id="188723005_0" index="0" speed="44.44" length="157.91" shape="1674.11,700.24 1753.54,563.77"/>
        <lane id="188723005_1" index="1" speed="44.44" length="157.91" shape="1676.96,701.90 1756.40,565.43"/>
        <lane id="188723005_2" index="2" speed="44.44" length="157.91" shape="1679.81,703.56 1759.25,567.09"/>
    </edge>
    <edge id="188723006" from="31940325" to="1993435940" priority="13" type="highway.motorway" spreadType="center" shape="1580.81,876.44 1640.41,769.30 1676.22,703.18">
        <lane id="188723006_0" index="0" speed="44.44" length="196.32" shape="1579.37,875.64 1638.96,768.51 1674.07,703.69"/>
        <lane id="188723006_1" index="1" speed="44.44" length="196.32" shape="1582.25,877.24 1641.86,770.09 1676.97,705.26"/>
    </edge>
    <edge id="188723007" from="31940347" to="31940365" priority="13" type="highway.motorway" spreadType="center" shape="1751.93,573.10 1771.86,542.87 1837.31,432.58">
        <lane id="188723007_0" index="0" speed="44.44" length="150.58" shape="1758.19,560.61 1770.46,541.99 1835.89,431.74"/>
        <lane id="188723007_1" index="1" speed="44.44" length="150.58" shape="1760.95,562.42 1773.26,543.75 1838.73,433.42"/>
    </edge>
    <edge id="188724474" from="1993449687" to="29684448" priority="13" type="highway.motorway" spreadType="center" shape="2119.43,0.00 2043.34,119.69 1955.12,262.84 1856.91,425.48 1777.47,557.08 1639.92,794.95 1620.32,833.14">
        <lane id="188724474_0" index="0" speed="27.78" length="940.92" shape="2120.82,0.89 2044.74,120.57 1956.53,263.70 1858.32,426.33 1778.89,557.92 1641.37,795.74 1635.70,806.78"/>