<?xml version="1.0" encoding="UTF-8"?>

<!-- generated on 06/08/19 23:54:05 by Eclipse SUMO jtrrouter Version 1.2.0
-->

<configuration xmlns:xsi="http://www.w3.org/2001/XMLSchema-instance" xsi:noNamespaceSchemaLocation="http://sumo.dlr.de/xsd/jtrrouterConfiguration.xsd">

    <input>
        <net-file value="tla_Example.net.xml"/>
    </input>

    <output>
        <output-file value="hokkaido22.rou.xml"/>
    </output>

</configuration>
