<?xml version="1.0" encoding="UTF-8"?>

<!-- generated on 03/16/20 21:47:19 by Eclipse SUMO netedit Version 1.4.0
<configuration xmlns:xsi="http://www.w3.org/2001/XMLSchema-instance" xsi:noNamespaceSchemaLocation="http://sumo.dlr.de/xsd/netconvertConfiguration.xsd">

    <input>
        <sumo-net-file value="C:\Users\HP\Desktop\SUMO_platoon_ver1%20-%20Copy\data1\line.net.xml"/>
    </input>

    <output>
        <output-file value="C:\Users\HP\Desktop\SUMO_platoon_ver1%20-%20Copy\data1\line.net.xml"/>
    </output>

    <processing>
        <geometry.min-radius.fix.railways value="false"/>
        <geometry.max-grade.fix value="false"/>
        <offset.disable-normalization value="true"/>
        <lefthand value="false"/>
    </processing>

    <junctions>
        <no-internal-links value="true"/>
        <no-turnarounds value="true"/>
        <junctions.corner-detail value="5"/>
        <junctions.limit-turn-speed value="5.5"/>
        <rectangular-lane-cut value="false"/>
    </junctions>

    <pedestrian>
        <walkingareas value="false"/>
    </pedestrian>

    <report>
        <aggregate-warnings value="5"/>
    </report>

</configuration>
-->

<net version="1.3" junctionCornerDetail="5" limitTurnSpeed="5.50" xmlns:xsi="http://www.w3.org/2001/XMLSchema-instance" xsi:noNamespaceSchemaLocation="http://sumo.dlr.de/xsd/net_file.xsd">

    <location netOffset="0.00,0.00" convBoundary="0.00,0.00,100000.00,0.00" origBoundary="-100000.00,-100000.00,100000.00,100000.00" projParameter="!"/>

    <edge id="lane1" from="edg1" to="edg2" priority="2">
        <lane id="lane1_0" index="0" speed="35.00" length="100000.00" shape="0.00,-14.40 100000.00,-14.40"/>
        <lane id="lane1_1" index="1" speed="35.00" length="100000.00" shape="0.00,-11.20 100000.00,-11.20"/>
        <lane id="lane1_2" index="2" speed="35.00" length="100000.00" shape="0.00,-8.00 100000.00,-8.00"/>
        <lane id="lane1_3" index="3" speed="35.00" length="100000.00" shape="0.00,-4.80 100000.00,-4.80"/>
        <lane id="lane1_4" index="4" speed="35.00" length="100000.00" shape="0.00,-1.60 100000.00,-1.60"/>
    </edge>

    <junction id="edg1" type="dead_end" x="0.00" y="0.00" incLanes="" intLanes="" shape="0.00,0.00 0.00,-16.00"/>
    <junction id="edg2" type="dead_end" x="100000.00" y="0.00" incLanes="lane1_0 lane1_1 lane1_2 lane1_3 lane1_4" intLanes="" shape="100000.00,-16.00 100000.00,0.00"/>

</net>
