<?xml version="1.0" encoding="UTF-8"?>

<!-- generated on 06/28/19 21:57:46 by Eclipse SUMO netedit Version 1.0.0
<configuration xmlns:xsi="http://www.w3.org/2001/XMLSchema-instance" xsi:noNamespaceSchemaLocation="http://sumo.dlr.de/xsd/netconvertConfiguration.xsd">

    <output>
        <output-file value="C:\Users\HP\Desktop\New%20folder%20(2)\data\mynetwork.net.xml"/>
    </output>

    <processing>
        <offset.disable-normalization value="true"/>
    </processing>

    <junctions>
        <no-turnarounds value="true"/>
    </junctions>

</configuration>
-->

<net version="1.0" junctionCornerDetail="5" limitTurnSpeed="5.50" xmlns:xsi="http://www.w3.org/2001/XMLSchema-instance" xsi:noNamespaceSchemaLocation="http://sumo.dlr.de/xsd/net_file.xsd">

    <location netOffset="0.00,0.00" convBoundary="-4800.00,100.00,9200.00,100.00" origBoundary="10000000000.00,10000000000.00,-10000000000.00,-10000000000.00" projParameter="!"/>

    <edge id="r1" from="gneJ0" to="gneJ1" priority="-1" length="100000.00" shape="-4800.00,100.00 8000.00,100.00 8500.00,100.00 9200.00,100.00">
        <lane id="r1_0" index="0" speed="13.89" length="100000.00" shape="-4800.00,88.80 8000.00,88.80 8500.00,88.80 9200.00,88.80"/>
        <lane id="r1_1" index="1" speed="13.89" length="100000.00" shape="-4800.00,92.00 8000.00,92.00 8500.00,92.00 9200.00,92.00"/>
        <lane id="r1_2" index="2" speed="13.89" length="100000.00" shape="-4800.00,95.20 8000.00,95.20 8500.00,95.20 9200.00,95.20"/>
        <lane id="r1_3" index="3" speed="13.89" length="100000.00" shape="-4800.00,98.40 8000.00,98.40 8500.00,98.40 9200.00,98.40"/>
    </edge>

    <junction id="gneJ0" type="dead_end" x="-4800.00" y="100.00" incLanes="" intLanes="" shape="-4800.00,100.00 -4800.00,87.20"/>
    <junction id="gneJ1" type="dead_end" x="9200.00" y="100.00" incLanes="r1_0 r1_1 r1_2 r1_3" intLanes="" shape="9200.00,87.20 9200.00,100.00"/>

</net>
